/*--------------------------------*- C++ -*----------------------------------*\
| =========                 |                                                 |
| \\      /  F ield         | OpenFOAM: The Open Source CFD Toolbox           |
|  \\    /   O peration     | Version:  v2012                                 |
|   \\  /    A nd           | Website:  www.openfoam.com                      |
|    \\/     M anipulation  |                                                 |
\*---------------------------------------------------------------------------*/
FoamFile
{
    version     2.0;
    format      ascii;
    class       dictionary;
    location    "system";
    object      controlDict;
}
// * * * * * * * * * * * * * * * * * * * * * * * * * * * * * * * * * * * * * //

application     mulesQHDFoam; 

startFrom       latestTime;  //startTime; 

startTime       0;

stopAt          endTime;

endTime         600;  //50 оборотов тигля

deltaT          5e-4;

writeControl    timeStep; //adjustable;

writeInterval   2000; //0.5;

purgeWrite      0;

writeFormat     ascii; //binary;

writePrecision  6;

writeCompression off;

timeFormat      general;

timePrecision   6;

runTimeModifiable false; //true;

adjustTimeStep  no; //yes;

maxCo           0.4;


functions
{

    probes
    {
         type probes;
         libs (sampling);

         // Name of the directory for probe data
         name probes;
         // Write at same frequency as fields
         writeControl timeStep; //outputTime;
         writeInterval 2000;

         // Fields to be probed
         fields (U p T);
         //fields (U);

         // Optional: do not recalculate cells if mesh moves
         fixedLocations false;

         // Optional: interpolation scheme to use (default is cell)
         interpolationScheme cellPoint;

         probeLocations
         (
             (0 0.03 0.06) // 1
             (0 0.05 0.02) // 2
         );

         // Optional: filter out points that haven't been found. Default
         // is to include them (with value -VGREAT)
         includeOutOfBounds true;
    } 
}

// ************************************************************************* //
