/*--------------------------------*- C++ -*----------------------------------*\
| =========                 |                                                 |
| \\      /  F ield         | OpenFOAM: The Open Source CFD Toolbox           |
|  \\    /   O peration     | Version:  2.3.0                                 |
|   \\  /    A nd           | Web:      www.OpenFOAM.org                      |
|    \\/     M anipulation  |                                                 |
\*---------------------------------------------------------------------------*/
FoamFile
{
    version     2.0;
    format      ascii;
    class       dictionary;
    location    "constant";
    object      thermophysicalProperties;
}
// * * * * * * * * * * * * * * * * * * * * * * * * * * * * * * * * * * * * * //

thermoType
{
    type            heRhoQGDThermo;
    mixture         pureMixture;
    transport       const;
    thermo          hConst;
    equationOfState rhoConst;
    specie          specie;
    energy          sensibleInternalEnergy;
}

mixture
{
    specie
    {
       nMoles          1;
       molWeight       144.6446; //Арсенид галлия
    }
    equationOfState
    {
        rho             5720.0; //Статья Global heat transfer, 2002.
    }
    thermodynamics
    {
        Cp              434.0;  //Статья Global heat transfer, 2002.
        Hf              0.0;
    }
    transport
    {
        mu              0.00279;   //Статья Global heat transfer, 2002.
        Pr              0.068;     //Статья Global heat transfer, 2002.
        beta            0.000187;  //Статья Global heat transfer, 2002.
    }
}

QGD
{
//    pRefCell		0;
//    pRefPoint		0;
    implicitDiffusion true;
    QGDCoeffs constTau;
    constTauDict
    {
        Tau 0.001; //
    }
}


// ************************************************************************* //
