/*--------------------------------*- C++ -*----------------------------------*\
| =========                 |                                                 |
| \\      /  F ield         | OpenFOAM: The Open Source CFD Toolbox           |
|  \\    /   O peration     | Version:  v2012                                 |
|   \\  /    A nd           | Website:  www.openfoam.com                      |
|    \\/     M anipulation  |                                                 |
\*---------------------------------------------------------------------------*/
FoamFile
{
    version     2.0;
    format      ascii;
    class       volVectorField;
    location    "0";
    object      U;
}
// * * * * * * * * * * * * * * * * * * * * * * * * * * * * * * * * * * * * * //

dimensions      [0 1 -1 0 0 0 0];

internalField   uniform (0 0 0);

boundaryField
{
    outlet
    {
        type            slip; 
    }
    outerCylinder
    {
        type rotatingWallVelocity;
        origin (0 0 0);
        axis   (0 0 1);
        omega   0.52;
    }
    disk
    {
        type rotatingWallVelocity;
        origin (0 0 0);
        axis   (0 0 1);
        omega  -1.04; 
    }
}


// ************************************************************************* //
